6
xyz
B	   0.000000000000000	   0.000000000000000	   0.000000000000000
X	   0.148501590000000	  -0.003114910000000	  -0.016749650000000
X	   0.001368260000000	   1.114279880000000	  -0.048800630000000
X	  -0.001491370000000	  -1.114554640000000	   0.048901420000000
He	   0.162869450000000	  -0.000564380000000	  -0.000557800000000
He	  -1.168820140000000	   0.004086750000000	   0.004107440000000
