5
xyz
Be      0.000000000000000      0.000000000000000      0.000000000000000
X       0.151250451786283      0.000110629332397     -0.000789612737492
X      -1.281300222613017     -0.000985918346889      0.006698121308065
He     -0.151250294956633     -0.000159586152105      0.000807018559772
He      1.281299926354214      0.001264990387420     -0.006705998331508
