5
xyz
Be      0.000000000000000      0.000000000000000      0.000000000000000
X       0.134225067428585      0.000098176431377     -0.000700730620508
X      -1.235313949291118     -0.000950533423221      0.006457723599722
He     -0.134224943350757     -0.000141622482336      0.000716177251089
He      1.235313663967056      0.001219589479580     -0.006465317915863
