5
xyz
Be      0.000000000000000      0.000000000000000      0.000000000000000
X       0.224693571190896      0.000164347937346     -0.001173027278592
X      -1.346652633073601     -0.001036204875643      0.007039757378452
He     -0.224693369667034     -0.000237076894819      0.001198885064199
He      1.346652339705823      0.001329510936423     -0.007048036261803
