12
xyz
B       0.000000000000000      0.000000000000000      0.000000000000000
H       0.000000000000000      1.190000000000000      0.000000000000000
H       1.030600000000000     -0.595000000000000      0.000000000000000
H      -1.030600000000000     -0.595000000000000      0.000000000000000
X       0.016130840000000     -0.009101140000000     -0.000000480000000
X       0.000000000000000      1.011499990000000      0.000000000000000
X       0.876009990000000     -0.505750000000000      0.000000000000000
X      -0.876009990000000     -0.505750000000000      0.000000000000000
He      0.000000270000000     -0.000015030000000      0.012171060000000
He      0.000000000000000      1.011500030000000      0.000000000000000
He      0.876010020000000     -0.505750010000000      0.000000000000000
He     -0.876010020000000     -0.505750010000000      0.000000000000000
