12
xyz
B       0.000000000000000      0.000000000000000      0.000000000000000
H       0.000000000000000      1.190000000000000      0.000000000000000
H       1.030600000000000     -0.595000000000000      0.000000000000000
H      -1.030600000000000     -0.595000000000000      0.000000000000000
X       0.047494980588348     -0.026624455134647     -0.000012939797278
X      -0.003186421707205      1.057147479823263     -0.000000000000010
X       0.905839510074912     -0.523137804352291      0.000000000000000
X      -0.917315262731793     -0.526113465279373     -0.000000000000008
He     -0.000159978433274      0.000008968946466      0.003778478192485
He     -0.000011966476623      1.049215421307575     -0.000000000000001
He      0.908716800133891     -0.524751604093023     -0.000000000000001
He     -0.908755338671741     -0.524759777631794     -0.000000000000011
