31
xyz
C       0.392400000000000     -0.722900000000000      0.000000000000000
O       1.613900000000000     -0.762100000000000      0.000000000000000
C      -0.327900000000000      0.522700000000000      0.000000000000000
H      -0.960000000000000      0.580900000000000      0.887500000000000
H      -0.960000000000000      0.580900000000000     -0.887500000000000
H       0.346400000000000      1.382000000000000      0.000000000000000
H      -0.104900000000000     -1.581400000000000      0.000000000000000
X       0.369485852830604     -0.706451013342062     -0.000001311343402
X       1.053248254423912     -0.744410087558447     -0.466458590840152
X       1.053240217149534     -0.744373577281394      0.466463803466489
X       0.056392774158513     -0.107828976832895      0.000009442013645
X      -0.005469570620766     -1.416883333308729      0.000002079171026
X       1.619987503940971     -0.762548158803838      0.000000842858498
X       1.922150136910796     -0.256013085030092      0.000022074244100
X       1.888250310180598     -1.283386379014105     -0.000029144657664
X      -0.322330905522775      0.512767078997196     -0.000000383396062
X      -0.827633133496124      0.511517294746278      0.733939568017294
X      -0.827639357681425      0.511522434605347     -0.733944371084117
X       0.251339194094974      1.206082628294074     -0.000000031656326
He      0.369369519991207     -0.706494005138667     -0.000001370074195
He      1.619295355533514     -0.760933458215745      0.000000584546596
He      1.052072924733666     -0.744433666455472      0.466556870735681
He      1.052080650209069     -0.744468477151096     -0.466551597637899
He      1.924267217997865     -0.255973481645963      0.000020995712382
He      1.889632064227974     -1.282717476911378     -0.000027769007048
He     -0.322439562334986      0.512859182766637     -0.000000366670299
He      0.056664863912397     -0.107742378796826      0.000009142981973
He     -0.827603739496054      0.511516758154040      0.733902488632143
He     -0.827609885327206      0.511521848071183     -0.733907256387300
He      0.251372000899379      1.205939283371500     -0.000000041055680
He     -0.004657415957115     -1.417123097314405      0.000002723587658
