22
xyz
C       0.000000000000000      0.000000000000000      0.669500000000000
C       0.000000000000000      0.000000000000000     -0.669500000000000
H       0.000000000000000      0.928900000000000      1.232100000000000
H       0.000000000000000     -0.928900000000000      1.232100000000000
H       0.000000000000000      0.928900000000000     -1.232100000000000
H       0.000000000000000     -0.928900000000000     -1.232100000000000
X       0.000074438269993     -0.000003771211007      0.715170596575546
X       0.563664166867596     -0.000021913872009     -0.000047118422630
X      -0.563796886046068      0.000028144885739      0.000046725024882
X      -0.000161690546997      0.797277076789153      1.122064487039386
X      -0.000078651926407     -0.797270911281819      1.122054674387231
X       0.000027031995528     -0.000003731002787     -0.715158582474360
X      -0.000020705925801      0.797276536975521     -1.122065600892638
X       0.000062332215497     -0.797271155893541     -1.122055978451389
He     -0.000127395730699     -0.000000349331622      0.716714808235860
He     -0.000035223763165     -0.000000369582869     -0.716715185212079
He     -0.534077368287349      0.000025110028974     -0.000021798002015
He      0.534282904411022     -0.000021806455562      0.000021776324708
He      0.000072073643586      0.797110755482061      1.115865922338942
He      0.000154951290091     -0.797106724691748      1.115856433087450
He     -0.000062477356816      0.797110762118766     -1.115865570772895
He      0.000020392556461     -0.797106674712681     -1.115856103082969
