  43
 angstrom
S       1.77930000    -0.45760000     0.00000000
C      -0.02540000    -0.48520000    -0.00000000
C      -0.61190000     0.93830000     0.00000000
H      -0.36510000    -1.02680000     0.88530000
H      -0.36510000    -1.02680000    -0.88530000
H      -1.70200000     0.89590000    -0.00000000
H      -0.29100000     1.48730000    -0.88800000
H      -0.29100000     1.48730000     0.88800000
H       1.87210000    -1.81230000    -0.00000000
X       1.77962498      -0.45715522      -0.00000688
X       1.66613275      -0.57081876      -0.22740280
X       1.66753404      -0.56933714       0.22884010
X       1.72928329      -0.18580463      -0.00063066
X       2.05318831      -0.50794258      -0.00077352
X       0.82763702      -0.48274920      -0.00003347
X       1.83652621      -1.46793607      -0.00044725
X       2.16147595      -0.08444373       0.68589049
X       2.16128693      -0.08382542      -0.68580423
X      -0.07966486      -0.47138541       0.00001415
X      -0.26720471       0.23897360       0.00001490
X      -0.18675210      -0.89196857       0.76500316
X      -0.18695108      -0.89188756      -0.76499472
X      -0.60526141       0.90041199       0.00005109
X      -1.51962328       0.84605914      -0.00000248
X      -0.32473513       1.35922968      -0.76078706
X      -0.32471163       1.35919991       0.76082102
He       1.77961142      -0.45716921      -0.00001443
He       1.66845781      -0.56839528       0.22954341
He       1.72943616      -0.18607898      -0.00140737
He       2.05275577      -0.50781806      -0.00173895
He       1.66529366      -0.57168610      -0.22632077
He       2.15516238      -0.08462334       0.68800246
He       2.15506159      -0.08397258      -0.68795816
He      -0.07799726      -0.47084066       0.00001643
He       0.82452819      -0.48702069      -0.00002255
He      -0.60630177       0.90149483       0.00006014
He      -0.27096761       0.23783815       0.00001492
He      -0.19022761      -0.88819997       0.76698592
He      -0.19023373      -0.88820265      -0.76698301
He      -1.51798604       0.84113745       0.00001014
He      -0.32166870       1.35625401      -0.76177761
He      -0.32166436       1.35625414       0.76182534
He       1.83227538      -1.46879213      -0.00051411
