26
xyz
C       0.000000000000000      0.000000000000000      0.768000000000000
C       0.000000000000000      0.000000000000000     -0.768000000000000
H      -1.019200000000000      0.000000000000000      1.157300000000000
H       0.509600000000000      0.882600000000000      1.157300000000000
H       0.509600000000000     -0.882600000000000      1.157300000000000
H       1.019200000000000      0.000000000000000     -1.157300000000000
H      -0.509600000000000     -0.882600000000000     -1.157300000000000
H      -0.509600000000000      0.882600000000000     -1.157300000000000
X      -0.000453152368270      0.000000196557156      0.722780267213565
X       0.000014993609783     -0.000000027672254     -0.000000652547037
X      -0.864412243062660      0.000000044172731      1.069366870291573
X       0.431809615091143      0.748285878993742      1.069499279792460
X       0.431809662119165     -0.748285871840985      1.069499278996671
X       0.000342232612201      0.000000006272826     -0.722779263176978
X       0.864419667627217      0.000000003308029     -1.069373134675411
X      -0.431825868034039     -0.748271961359333     -1.069496531437882
X      -0.431825862469145      0.748271958373580     -1.069496511388678
He     -0.000369205782929      0.000000101420466      0.721631655887557
He      0.000319585811816     -0.000000303904561     -0.721619846193608
He      0.000027141178683      0.000000112703945     -0.000004032274760
He     -0.865958341685017     -0.000000176018771      1.056027767006233
He      0.432628038921196      0.749617694511834      1.056090439256463
He      0.432627982535676     -0.749617950060396      1.056090515060983
He      0.865968161155531      0.000000304979987     -1.055995110773065
He     -0.432602456215648     -0.749626841711499     -1.056108761281195
He     -0.432602322373767      0.749627222801654     -1.056108589006879
