54
xyz
C       0.000000000000000      1.397000000000000      0.000000000000000
C       1.209800000000000      0.698500000000000      0.000000000000000
C       1.209800000000000     -0.698500000000000      0.000000000000000
C       0.000000000000000     -1.397000000000000      0.000000000000000
C      -1.209800000000000     -0.698500000000000      0.000000000000000
C      -1.209800000000000      0.698500000000000      0.000000000000000
H       0.000000000000000      2.481000000000000      0.000000000000000
H       2.148600000000000      1.240500000000000      0.000000000000000
H       2.148600000000000     -1.240500000000000      0.000000000000000
H       0.000000000000000     -2.481000000000000      0.000000000000000
H      -2.148600000000000     -1.240500000000000      0.000000000000000
H      -2.148600000000000      1.240500000000000      0.000000000000000
X      -0.026868201486437      1.396572980333242      0.000002498455207
X       0.581585577368605      1.007430818545584      0.631444143288991
X       0.581589702351059      1.007464606900008     -0.631447607482379
X      -0.605021138775026      1.048053393403567     -0.000013627940802
X       0.003083706986577      2.300043911916791     -0.000005363348518
X       1.222708049965892      0.674915154827329     -0.000001547232615
X       1.210651971985704      0.000041984155092      0.000011946555610
X       1.990212650976287      1.152800400839415     -0.000006690332821
X       1.222669029680214     -0.674889302484331     -0.000001360718424
X       0.581598180271559     -1.007477265236004     -0.631483977149930
X       0.581583750087499     -1.007428193075621      0.631478913725533
X       1.990228840407381     -1.152796553522908     -0.000009981035316
X      -0.026871844755882     -1.396521452167261      0.000002297341092
X      -0.605077004844986     -1.048032337333056     -0.000011094117818
X       0.003066808160113     -2.300054914862295     -0.000008785646678
X      -1.195889489695086     -0.721320493845991      0.000000145424700
X      -1.163171618215998     -0.000001871183737     -0.631398733162398
X      -1.163307715073470     -0.000003187424814      0.631409756078209
X      -1.993384405665837     -1.147239800872048      0.000024898744033
X      -1.195875820407609      0.721315433174178      0.000000544285027
X      -1.993389359164513      1.147244691770753      0.000025037470361
He     -0.026673789468208      1.400123595397354      0.000002750198386
He      1.225730176959165      0.676876110786653     -0.000001485886380
He      0.580723047583116      1.005941389240631     -0.631211293564518
He      0.580719094580015      1.005907591825567      0.631207507448160
He      1.225731793012056     -0.676763223976199     -0.000001164322071
He      1.209420170774587     -0.000121187913178      0.000011857135049
He     -0.026690756031159     -1.400114415848450      0.000002580037496
He      0.580722561014255     -1.005899927638702      0.631194671947999
He      0.580736937602041     -1.005949029914802     -0.631200281754677
He     -1.199049083531092     -0.722973643001807     -0.000000286868937
He     -0.604518558134811     -1.046978317068707     -0.000011000734640
He     -1.199041967322420      0.722978310138912      0.000000172003096
He     -1.161548531706487      0.000000206353341      0.631146897613857
He     -1.161412382845040      0.000001589365788     -0.631134799296105
He     -0.604543226841671      1.046962061160072     -0.000013583517175
He      0.003430627872770      2.298697318114906     -0.000005343365235
He      1.988856105864367      1.152449200413358     -0.000006596051136
He      1.988849944456299     -1.152451136759088     -0.000009953207640
He      0.003431290916853     -2.298695726392540     -0.000008777884230
He     -1.992392275122346     -1.146251651532213      0.000024721169233
He     -1.992391432117633      1.146251430063952      0.000024833173612
