54
xyz
C       0.000000000000000      1.397000000000000      0.000000000000000
C       1.209800000000000      0.698500000000000      0.000000000000000
C       1.209800000000000     -0.698500000000000      0.000000000000000
C       0.000000000000000     -1.397000000000000      0.000000000000000
C      -1.209800000000000     -0.698500000000000      0.000000000000000
C      -1.209800000000000      0.698500000000000      0.000000000000000
H       0.000000000000000      2.481000000000000      0.000000000000000
H       2.148600000000000      1.240500000000000      0.000000000000000
H       2.148600000000000     -1.240500000000000      0.000000000000000
H       0.000000000000000     -2.481000000000000      0.000000000000000
H      -2.148600000000000     -1.240500000000000      0.000000000000000
H      -2.148600000000000      1.240500000000000      0.000000000000000
X      -0.035778036419780      1.403332928347168      0.000002411415009
X       0.581016576603629      1.006431175977370      0.590080582476830
X       0.581001441152877      1.006438307456927     -0.590086508495504
X      -0.598421625194792      1.036579598753220     -0.000010078740677
X       0.013735179955505      2.279897913076070     -0.000007727391739
X       1.233125658211448      0.670578924831486     -0.000000624132229
X       1.197260289457619      0.000045053083455      0.000007673565824
X       1.967353925567446      1.151874928920981     -0.000007541275694
X       1.233166935226262     -0.670533364091933     -0.000000199266834
X       0.581001573299242     -1.006438409871405     -0.590126553918960
X       0.581013818252396     -1.006429558075361      0.590118187378260
X       1.967361847405573     -1.151877121400169     -0.000012476216472
X      -0.035836378295595     -1.403347664098655      0.000002542720028
X      -0.598474727706774     -1.036543368875933     -0.000008335899400
X       0.013725983661075     -2.279903148990275     -0.000012648365627
X      -1.197338294558279     -0.732577933181665     -0.000001803625046
X      -1.162036043659077      0.000000400966581     -0.589998747882736
X      -1.162064409386302     -0.000001242494039      0.590015266459244
X      -1.981236920230496     -1.127821171550234      0.000037578785064
X      -1.197327027077813      0.732606850764826     -0.000001508004144
X      -1.981244178575490      1.127825348076414      0.000037563701299
He     -0.036602291861048      1.403160587568642      0.000002425334159
He      1.233353315318667      0.669804611229904     -0.000000645273012
He      0.581025692535416      1.006468975038776     -0.590393510538208
He      0.581040989860799      1.006461861101301      0.590387305119050
He      1.233360527482216     -0.669784695244550     -0.000000208367543
He      1.197973601983456     -0.000073504776036      0.000007747738458
He     -0.036606171439559     -1.403161703559598      0.000002566323932
He      0.581045280029877     -1.006451231537347      0.590369386532128
He      0.581032929061012     -1.006460103409238     -0.590378273380202
He     -1.196774791995076     -0.733173892289374     -0.000001822269519
He     -0.598846959413937     -1.037164809325643     -0.000008362045037
He     -1.196773223663918      0.733174966300220     -0.000001522897048
He     -1.162101198246605      0.000002229654571      0.590285528638228
He     -1.162072907822445      0.000003911375156     -0.590268286212069
He     -0.598858963232479      1.037151312869225     -0.000010125579365
He      0.013838639499024      2.279750755457341     -0.000007681110557
He      1.967155186924473      1.151932698339143     -0.000007433903423
He      1.967146565295806     -1.151926106158261     -0.000012440120536
He      0.013835614128612     -2.279747123336320     -0.000012616645836
He     -1.981158408817884     -1.127643322105880      0.000037420194907
He     -1.981157369195357      1.127642521407746      0.000037376495134
