7
xyz
C	   0.000000000000000	   0.000000000000000	   0.000000000000000
X	   0.060426950000000	  -0.026298830000000	   0.054045790000000
X	   0.043602380000000	   0.060104950000000	   1.038311810000000
X	  -0.138297040000000	  -0.939572150000000	  -0.505716570000000
X	   0.012420970000000	   0.861735120000000	  -0.598995110000000
He	   0.089845940000000	  -0.000540880000000	  -0.000362080000000
He	  -1.057985710000000	   0.005956920000000	   0.004612160000000
