7
xyz
C	   0.000000000000000	   0.000000000000000	   0.000000000000000
X	   0.015611060000000	  -0.028222910000000	   0.016957220000000
X	   0.013499430000000	   0.073156500000000	   1.063669900000000
X	   0.001306470000000	  -0.945375400000000	  -0.449814960000000
X	   0.012230780000000	   0.895573330000000	  -0.561355490000000
He	   0.054353950000000	  -0.000397360000000	  -0.000216290000000
He	  -1.058846460000000	   0.006025900000000	   0.004613960000000
