47
xyz
F       1.371000000000000      0.000000000000000      0.000000000000000
F      -0.457000000000000      1.292600000000000      0.000000000000000
F      -0.457000000000000     -0.646300000000000      1.119400000000000
F      -0.457000000000000     -0.646300000000000     -1.119400000000000
C       0.000000000000000      0.000000000000000      0.000000000000000
X       1.390813215226303      0.000017292263828     -0.000105148809984
X       0.767609869664192     -0.002412314267299      0.005800472601165
X       1.487824084226355      0.479951022439746      0.316069551828959
X       1.489856053080131      0.039863466366792     -0.573314450214608
X       1.484560461644781     -0.517287698726025      0.251876529858742
X      -0.463580639230382      1.311291877062629     -0.000181206577929
X      -0.258261775545067      0.722851459837680      0.005689792990693
X      -0.603705857749074      1.357006928628780      0.564038878639215
X      -0.897597762011518      1.263464784926112     -0.386505335004976
X       0.015979580796389      1.588538231021429     -0.182570443199889
X      -0.463485057449962     -0.655482636932541      1.135296198106431
X      -0.256482246546699     -0.361455877542996      0.628089221673254
X      -0.124006729195261     -1.127365535515560      1.121324310127098
X      -1.022074301621042     -0.724469064079534      0.987508499972847
X      -0.342152999590281     -0.252834286678456      1.537224013835705
X      -0.463522328238387     -0.655522355997755     -1.135655919905861
X      -0.260265150836801     -0.364728071842758     -0.623490668233831
X      -0.363049274315291     -1.205996358390329     -0.972158671116888
X      -0.106236063485387     -0.427895329273590     -1.535952482268779
X      -1.014444815716902     -0.466438174809443     -1.137867370066548
X       0.018603813125680      0.024345900377751     -0.044336446307831
He      1.391200893088492     -0.000181821586819      0.000032139802185
He      1.482780945942491      0.476907100213023      0.322216512834712
He      1.485130472658309      0.032964891221347     -0.574278908207520
He      1.493380939727291     -0.516309921360388      0.251558040232979
He     -0.463669120258169      1.311319377502740     -0.000063647906946
He     -0.606690973825704      1.362224951259586      0.561927334329502
He     -0.899427584160492      1.261839313024510     -0.382749608629315
He      0.017525958765486      1.585757880370212     -0.178924322414755
He     -0.463629239999715     -0.655896916267907      1.135783020682907
He     -0.125559556153041     -1.130270360373230      1.122927392163388
He     -1.021518644369952     -0.726968232733805      0.982899509386923
He     -0.336814129416472     -0.249985669005164      1.534144246018790
He     -0.463660062915166     -0.655896761182256     -1.135825474690354
He     -0.367512798836817     -1.209288922279371     -0.979043924544280
He     -0.099833399484575     -0.429133858226650     -1.530405927995411
He     -1.015850067188619     -0.470340631291772     -1.130711388873436
He      0.018223073003388     -0.050708031387589     -0.000392870312538
He      0.767847071694719      0.007610080598689      0.000092363458825
He     -0.255741657665299      0.725425450180498     -0.000255596121353
He     -0.259419189711246     -0.355666586576751      0.629889000563614
He     -0.260406099315318     -0.354826704714771     -0.629451507781604
