47
xyz
F       1.371000000000000      0.000000000000000      0.000000000000000
F      -0.457000000000000      1.292600000000000      0.000000000000000
F      -0.457000000000000     -0.646300000000000      1.119400000000000
F      -0.457000000000000     -0.646300000000000     -1.119400000000000
C       0.000000000000000      0.000000000000000      0.000000000000000
X       1.369583809277350     -0.000067540142688      0.000013703723788
X       0.747542167721848      0.000728948908607      0.000407885841978
X       1.494567170791443      0.419561378138853      0.321133049727888
X       1.493944516583077      0.067548298400043     -0.524351048535157
X       1.496848212907605     -0.487523570186412      0.202891009116763
X      -0.456488797056170      1.291072247431881     -0.000016114740462
X      -0.248462906423850      0.704534889071480     -0.000166188656993
X      -0.571913682156038      1.383036736875666      0.523210783874318
X      -0.888318668054643      1.274109704120726     -0.329463892674320
X      -0.035567766318132      1.574970561188868     -0.193626267784405
X      -0.457832305730378     -0.647472300631968      1.121543514756922
X      -0.249226889724919     -0.350415095599493      0.609753639144169
X      -0.173891784683012     -1.106027819383669      1.121750674277369
X      -0.985084941621890     -0.705235102551002      1.021725241998451
X      -0.335950928809994     -0.303128245345753      1.518386655101907
X      -0.456544045642365     -0.645650337433976     -1.118324982147247
X      -0.250047881584587     -0.351440667488562     -0.611092660070024
X      -0.354384382460708     -1.168194288098985     -1.011583308308023
X      -0.156909023641002     -0.430786600690270     -1.516426036113075
X      -0.982988417105214     -0.514866763029701     -1.132588399231528
X       0.000042922607522     -0.000033368383166     -0.000021928378780
He      1.369560722458769     -0.000042859370086      0.000003210438537
He      1.494182211233334      0.420170075756701      0.321785393420525
He      1.493592972932885      0.066557238857782     -0.525294262492230
He      1.497810038581808     -0.487725451493727      0.203413717630671
He     -0.456485592470745      1.291053476968655     -0.000032732672440
He     -0.572652798409271      1.383412856631014      0.523273102615606
He     -0.888452927086692      1.273968635825762     -0.329558935714327
He     -0.034743405096033      1.574984145010647     -0.193189019957993
He     -0.456590148017330     -0.645637537760994      1.118336998411596
He     -0.171876798878887     -1.108064139074752      1.121115224409893
He     -0.987527158757452     -0.705481629526802      1.019533143651808
He     -0.334602611470073     -0.300176090106574      1.519249787919892
He     -0.456540316933289     -0.645618304678845     -1.118318515595485
He     -0.354983459908234     -1.168940391645533     -1.012064407249386
He     -0.155574116384239     -0.430730824508337     -1.516381964539859
He     -0.983695774616540     -0.514799091022868     -1.132048357256817
He      0.000045809348769     -0.000096351085229      0.000009931282158
He      0.747519111548694      0.001292170307627      0.000205262741600
He     -0.248296354403242      0.704465992010421     -0.000495938920729
He     -0.250016650602703     -0.351046302380026      0.611511559687172
He     -0.250128991875239     -0.350887089402243     -0.611346856758762
