21
xyz
F       1.209900000000000     -0.128500000000000     -0.222500000000000
C      -0.161100000000000     -0.128500000000000     -0.222500000000000
H      -0.524400000000000      0.899200000000000     -0.222500000000000
H      -0.524400000000000     -0.642300000000000      0.667500000000000
X       1.206594032731627     -0.128343296074828     -0.222229406380394
X       0.589368286635012     -0.110825114177899     -0.191366745977227
X       1.337733929939007     -0.677202319485377     -0.250165027432866
X       1.383213330231686      0.135074530275957      0.262978253930966
X       1.338756628460045      0.147146592363593     -0.697182019606382
X      -0.149956697804886     -0.126723729153754     -0.219390032904907
X      -0.362957994991142      0.731600236165044     -0.096874561558514
X      -0.362937927663973     -0.449726396518078      0.584696614134006
X      -0.399008869839730     -0.791468858738341     -1.369710437321820
He      1.204720693221677     -0.130635403732405     -0.226127919312588
He      1.359872277222061     -0.672304595421720     -0.086700717146625
He      1.338935618142675      0.181300863954216      0.311857162433337
He      1.362539793452772      0.258679877980258     -0.627031066030627
He     -0.130159624906378     -0.091192039221922     -0.157932529916411
He      0.552163767717977     -0.259459036039626     -0.450026659465719
He     -0.405556430923638      0.641255413047971     -0.408674059847283
He     -0.406231392587100     -0.674805943850570      0.351594951449410
