21
xyz
N       0.869800000000000      0.161700000000000      0.000000000000000
C      -0.405900000000000      0.161700000000000      0.000000000000000
H      -0.900500000000000      1.019300000000000      0.000000000000000
H      -0.901500000000000     -0.695200000000000      0.000000000000000
H       1.338100000000000     -0.647500000000000      0.000000000000000
X       0.911630976117868      0.170112427644104     -0.000000229436559
X       0.231625114612915      0.139166292698672     -0.439670490070084
X       0.231624841533559      0.139169031688630      0.439671434322371
X       1.283839469209577     -0.476255482283529     -0.000002340455169
X       1.387491612585623      0.832454002422768      0.000003251989722
X      -0.454737068305101      0.162757591812502     -0.000000048078411
X      -0.825932764457717      0.911949352422661      0.000002667020611
X      -0.845722288553665     -0.591651783541443     -0.000001562852975
He      0.911160512997623      0.168547969398000     -0.000000136757001
He      1.384255725465074      0.838156624976974      0.000002961872253
He     -0.455118067835683      0.162963443464249      0.000000151081891
He      0.233931898056111      0.139334087524161      0.431684350951262
He      0.233932629095561      0.139331347625031     -0.431683741861527
He     -0.827981246848248      0.911413559942989      0.000002722129761
He     -0.847844452635556     -0.592015970291325     -0.000001552193506
He      1.278216541955309     -0.478988277310774     -0.000002553313715
