20
xyz
C      -0.057500000000000      0.000000000000000      0.000000000000000
O       1.162500000000000      0.000000000000000      0.000000000000000
H      -0.552500000000000      0.857400000000000      0.000000000000000
H      -0.552500000000000     -0.857400000000000      0.000000000000000
X      -0.109494477829164      0.000000195978388      0.000002911786231
X       0.590160184948227      0.000031976398938      0.388722597883447
X       0.590153608408280     -0.000033265929551     -0.388731457539896
X      -0.475340132673742      0.750719021596574      0.000019579789941
X      -0.475341477547686     -0.750719423466154     -0.000031592838281
X       1.196169218861268      0.000000052728974     -0.000000364644199
X       1.512498994526559     -0.559338037240883     -0.000046842866854
X       1.512497346237566      0.559338094169618      0.000054943443702
He     -0.109587648943111      0.000000125565885      0.000002536778491
He      1.197878250043689      0.000000002316123     -0.000000913773357
He      0.596017266361089     -0.000033193326253     -0.384178558000248
He      0.596030396148024      0.000031787816790      0.384166940710473
He      1.498820271027202     -0.564980940716297     -0.000043160971316
He      1.498818900022244      0.564983076028959      0.000058033436895
He     -0.476745662542153      0.750710316259499      0.000016232476395
He     -0.476746873024933     -0.750710712147266     -0.000034489497725
