13
xyz
C       0.000000000000000      0.000000000000000      0.000000000000000
H       1.079000000000000      0.000000000000000      0.000000000000000
H      -0.539500000000000     -0.934400000000000      0.000000000000000
H      -0.539500000000000      0.934400000000000      0.000000000000000
X       0.000016800722406      0.000000000107041      0.022668255681285
X       0.922156560266348      0.000000001578756      0.164923311545716
X      -0.460932166304436     -0.798471803095237      0.165276228603657
X      -0.460932165096988      0.798471804167926      0.165276233297470
X      -0.000188199458089     -0.000000002549425     -0.952492746962109
He      0.000018667571412     -0.000000002554457     -0.119051241191278
He      0.918558366585241     -0.000000003191502      0.000017001499645
He     -0.459339982735964     -0.795495642682822      0.000016578283461
He     -0.459339975439810      0.795495623815321      0.000016577831587
