13
xyz
C       0.000000000000000      0.000000000000000      0.000000000000000
H       1.079000000000000      0.000000000000000      0.000000000000000
H      -0.539500000000000     -0.934400000000000      0.000000000000000
H      -0.539500000000000      0.934400000000000      0.000000000000000
X       0.000030853141775      0.000000000127877      0.016892397320230
X       0.915570333337567      0.000000001614282      0.217426575861429
X      -0.457529859809659     -0.792666768576495      0.218102196982854
X      -0.457529858789299      0.792666770043906      0.218102201137593
X      -0.000370756684358     -0.000000002614023     -0.915252183163789
He      0.000027352698728      0.000000010676416     -0.103495139741490
He      0.918490268541042      0.000000003940256      0.000014638147007
He     -0.459475745694036     -0.795542771556070      0.000012919442773
He     -0.459475735375403      0.795542761687096      0.000012918990380
