23
xyz
F       1.314800000000000      0.000000000000000      0.000000000000000
C      -0.056200000000000      0.000000000000000      0.000000000000000
H      -0.419500000000000      1.027700000000000      0.000000000000000
H      -0.419500000000000     -0.513800000000000      0.890000000000000
H      -0.419500000000000     -0.513800000000000     -0.890000000000000
X       1.317505219249522     -0.000090896058401     -0.000009586298721
X       0.718389035019061      0.000221944725732     -0.000044715778868
X       1.441207757052251     -0.541341377788528      0.000477614648476
X       1.442108650962713      0.270059977352257     -0.468991999627444
X       1.442184809722403      0.270761064753557      0.468560871945416
X      -0.039853498519590      0.000015182216867      0.000001649222060
X      -0.299966837217933      0.848043779681465      0.000005340727786
X      -0.300180763010967     -0.423913448138810      0.734422233393516
X      -0.300162698502078     -0.423915443581949     -0.734417896328032
He      1.318015745498706      0.000010299319410     -0.000000740436713
He      1.440647932126188     -0.541633836762726      0.000473901084342
He      1.441504504364618      0.270172628883084     -0.469233080772025
He      1.441572579357724      0.270876998228888      0.468797712342963
He     -0.039906490144674      0.000014529316934      0.000001540846143
He      0.719064107088203      0.000247354544865     -0.000040972120269
He     -0.300033470615445      0.848077462650048      0.000005105199137
He     -0.300247939458879     -0.423931237712935      0.734451128984866
He     -0.300230572544948     -0.423933066380495     -0.734446992844718
