30
xyz
C       0.276300000000000     -0.544300000000000      0.000000000000000
N      -0.361800000000000      0.560300000000000      0.000000000000000
O       1.496300000000000     -0.545300000000000      0.000000000000000
H      -1.297000000000000      0.560700000000000      0.000000000000000
H       0.105000000000000      1.370800000000000      0.000000000000000
H      -0.218700000000000     -1.402200000000000      0.000000000000000
X       0.264069411994021     -0.539000817619872     -0.006986746046497
X      -0.088325912472591      0.077881731662511      0.297302631264516
X       0.980439175167896     -0.520825182929958     -0.421282145838046
X       0.966566723684396     -0.575597518001519      0.447979848022674
X      -0.132986338337712     -1.228040486007277      0.001045205516067
X      -0.363082200267482      0.560793758829307      0.012050207883584
X      -1.142454011235307      0.529048153812157      0.119001198020771
X       0.050279847728442      1.211000290495055      0.090679965647500
X      -0.198869509383962      0.277425920602123     -0.804918529813805
X       1.505326399713619     -0.545335158179019      0.001222024101908
X       1.772397963474755     -0.009956265250795     -0.024840473442341
X       1.793166306467194     -1.070451663608208      0.001926361228747
He      0.264353752786947     -0.539005663093784     -0.007027900806139
He     -0.363106670937374      0.560818707367188      0.012030389683123
He     -0.088173119533428      0.077932714866796      0.297698211433887
He     -0.198662108818540      0.277245199490250     -0.803780846753243
He      1.504668661177689     -0.548418554246717      0.000300523851503
He      0.967466230961479     -0.574064237005519      0.450040585324882
He      0.980857407737223     -0.522438698698113     -0.423516062720224
He      1.771729974345615     -0.009049700117452     -0.022454334798085
He      1.792308232680700     -1.071360086484237     -0.000341681474225
He     -1.142662502085758      0.529389525507104      0.118868781212935
He      0.050029618093094      1.211067321145485      0.090508572908385
He     -0.132529050842362     -1.228225062242563      0.000261017932850
