24
xyz
O       1.084900000000000      0.171300000000000      0.000000000000000
C      -0.336600000000000      0.150400000000000      0.000000000000000
H      -0.707600000000000      1.175400000000000      0.000000000000000
H      -0.700600000000000     -0.363600000000000      0.890000000000000
H      -0.700600000000000     -0.363600000000000     -0.890000000000000
H       1.360600000000000     -0.769900000000000      0.000000000000000
X       1.105640566957820      0.184888525711875      0.000000259770225
X       0.445091334128438      0.095477931114844      0.000049729765762
X       1.204062887030009     -0.494385008062541     -0.000072502894874
X       1.281426616579760      0.478454663422522     -0.563426006492313
X       1.281287316574934      0.478557390383890      0.563435864847062
X      -0.384919689316174      0.152307707751867     -0.000009902941996
X      -0.648202438043659      1.022335555695879     -0.000003887568436
X      -0.622604111189448     -0.288468058130768      0.755715602127373
X      -0.622602140675013     -0.288461810420093     -0.755713794992211
He      1.106648561777234      0.181611407395170     -0.000000961985675
He      1.270225040520840      0.482191695922746     -0.567042482518925
He      1.270081787459771      0.482293361229710      0.567048082416459
He     -0.384846396130258      0.151767372986977     -0.000010001891768
He      0.452741889215468      0.097519930530603      0.000052682588017
He     -0.649535341701264      1.022093819697034     -0.000003813266085
He     -0.624539547678723     -0.288664038702549      0.755538268176546
He     -0.624536284441110     -0.288657638194690     -0.755536170845153
He      1.197873569639298     -0.503823748701225     -0.000073718650829
