  32
 angstrom
S       1.35600000    -0.30310000    -0.00000000
C      -0.44170000    -0.20020000    -0.00000000
H      -0.85920000    -1.20680000     0.00000000
H      -0.78080000     0.33070000     0.89000000
H      -0.78080000     0.33070000    -0.89000000
H       1.50650000     1.04870000     0.00000000
X       1.35596228      -0.30313345      -0.00000052
X       1.59352268      -0.26284611      -0.00008198
X       1.25791459      -0.20439469       0.19629931
X       1.25780739      -0.20415851      -0.19612026
X       1.31462924      -0.53950210      -0.00009030
X       0.37426617      -0.22763810      -0.00000637
X       1.43963980       0.70477944       0.00001340
X       1.64013465      -0.66446055      -0.73693065
X       1.64006428      -0.66448161       0.73692608
X      -0.45054037      -0.19939627       0.00000058
X      -0.67911247      -1.06564739      -0.00001704
X      -0.60336343       0.24097002       0.76285876
X      -0.60333829       0.24095609      -0.76283423
He       1.35600111      -0.30311242       0.00001651
He       1.25781189      -0.20420804       0.19640300
He       1.59338287      -0.26304374      -0.00010391
He       1.25766915      -0.20398342      -0.19620977
He       1.31467921      -0.53978804      -0.00007911
He       1.63709345      -0.66194556      -0.73908312
He       1.63704920      -0.66197350       0.73907252
He      -0.45036083      -0.19939107      -0.00000023
He       0.37738814      -0.22803395       0.00001418
He      -0.67998386      -1.06615811      -0.00000578
He      -0.60327554       0.24099901       0.76364639
He      -0.60329129       0.24099436      -0.76364752
He       1.44053052       0.70525566      -0.00002176
