15
xyz
C       0.000000000000000      0.000000000000000      0.000000000000000
H       0.627600000000000      0.627600000000000      0.627600000000000
H       0.627600000000000     -0.627600000000000     -0.627600000000000
H      -0.627600000000000      0.627600000000000     -0.627600000000000
H      -0.627600000000000     -0.627600000000000      0.627600000000000
X       0.016849862485979      0.016849709716548      0.016795769644832
X       0.533185829050543      0.533185833427938      0.533193214913295
X       0.532967837206315     -0.534723333875425     -0.534716682804060
X      -0.534723341720542      0.532967842010344     -0.534716683409261
X      -0.534726045762083     -0.534726038523346      0.532978137612660
He      0.018705570266123      0.018705528218687     -0.018659556421573
He      0.533273825595210      0.533273827022164      0.534449853632516
He      0.533277641307310     -0.534461311147940     -0.533286106521920
He     -0.534461312941441      0.533277642553829     -0.533286106349373
He     -0.534526259590397     -0.534526257598154      0.534518388420442
