39
xyz
F      -0.738000000000000     -0.974100000000000     -0.514700000000000
C      -0.033400000000000      0.062300000000000     -0.012400000000000
F       1.189700000000000      0.048100000000000     -0.583700000000000
F       0.124800000000000     -0.146700000000000      1.312000000000000
H      -0.543000000000000      1.010500000000000     -0.201200000000000
X      -0.739495308515616     -0.976386968836593     -0.515770634195510
X      -0.420446615566587     -0.523464577697233     -0.290393115946605
X      -1.208733937674916     -0.939634251055542     -0.247216721153704
X      -0.434190653295536     -1.409804661963746     -0.395455522207754
X      -0.771317256048120     -0.852071977334665     -1.042290765459120
X      -0.027354032922318      0.050064039356006     -0.010475870351718
X       0.652170655134978      0.046152620139182     -0.328531374328347
X       0.060628525623513     -0.062344096150395      0.726786449426524
X      -0.417479711102490      0.776477706389903     -0.154850043634871
X       1.192513935332520      0.048224715024675     -0.584768439777924
X       1.080378081854387      0.129735600238804     -1.108590469688731
X       1.385261248711151     -0.445485916899703     -0.464837015996132
X       1.438150838664417      0.463705785885566     -0.337830973823269
X       0.125363826709965     -0.146942983429550      1.315160076089285
X      -0.384935294844058     -0.138602303221645      1.497279099984557
X       0.371106041476047     -0.630997406408109      1.341774954822107
X       0.426149393730347      0.279077433981997      1.463061653754620
He     -0.739736659094817     -0.976722829197113     -0.515960905333624
He     -1.209158139575925     -0.939074530704280     -0.246583828245166
He     -0.433243727111570     -1.410057094119466     -0.394964846215382
He     -0.771081360182066     -0.851353637423529     -1.042858478413589
He     -0.027316041530753      0.050196122805687     -0.010421758075883
He     -0.420566452022329     -0.523758176284932     -0.290503229554866
He      1.192838806313226      0.048046551173906     -0.585100105156310
He      0.652360955013890      0.045904101723884     -0.328849237558521
He      1.079381837628013      0.130292444493577     -1.109089221570631
He      1.385020669166164     -0.446365832744784     -0.463878309042928
He      1.438328492519872      0.464238541556804     -0.337434639276508
He      0.125215832264393     -0.147203339809026      1.315307149693054
He      0.060480278010414     -0.062625055513392      0.726923657358698
He     -0.385774643356577     -0.138037062102528      1.496918238640149
He      0.371871551946812     -0.631611855114927      1.341116903928873
He      0.426504843069691      0.279588496390630      1.463256004740589
He     -0.417478875360537      0.776516416359937     -0.154843872923752
