39
xyz
F      -0.738000000000000     -0.974100000000000     -0.514700000000000
C      -0.033400000000000      0.062300000000000     -0.012400000000000
F       1.189700000000000      0.048100000000000     -0.583700000000000
F       0.124800000000000     -0.146700000000000      1.312000000000000
H      -0.543000000000000      1.010500000000000     -0.201200000000000
X      -0.739015209234830     -0.975349255521002     -0.515483441476882
X      -0.419649796555526     -0.517189453950711     -0.289645143003743
X      -1.188189966230271     -0.951274497350744     -0.259705767117703
X      -0.450665957916111     -1.394466960706663     -0.407611161912584
X      -0.777217255155846     -0.863796542602644     -1.019219773472397
X      -0.025806511663608      0.047709409830470     -0.009811437303283
X       0.646535469772038      0.048816890565299     -0.327718612473630
X       0.058279922722378     -0.059064887129196      0.721975304415291
X      -0.415039036855282      0.771950948743747     -0.153992758968715
X       1.189904553375597      0.047636015938497     -0.584400024469627
X       1.093802520903871      0.124620840746246     -1.086955303409561
X       1.382733724827747     -0.422215164319054     -0.473235502025573
X       1.434438709823396      0.442759794646959     -0.352677158374307
X       0.124450234385351     -0.147025233517197      1.311935599581880
X      -0.359307820781736     -0.143019001358601      1.496723374039443
X       0.362263120134590     -0.608588783874490      1.347726533202651
X       0.412092504423270      0.257490206033284      1.465185993892360
He     -0.737982016978964     -0.973862229236255     -0.514704498804896
He     -1.189510477219092     -0.950976647936110     -0.258785620832506
He     -0.449425510482813     -1.395745251199702     -0.407059398668554
He     -0.777211656153841     -0.863179434977927     -1.020690879980290
He     -0.025723194465016      0.047689809520298     -0.009746558539137
He     -0.419571040411770     -0.517180887599909     -0.289622844536649
He      1.189655568167647      0.048164394346256     -0.583657933371152
He      0.646319550083203      0.048617596229074     -0.327836829115344
He      1.093190211098197      0.125207715658574     -1.088186395899172
He      1.383208813423467     -0.423585256056879     -0.472434763524299
He      1.435365490998437      0.443817334868339     -0.352116705405935
He      0.124646936069870     -0.146519647312522      1.311790888628769
He      0.058128128965417     -0.059193554885422      0.721767625482423
He     -0.360408706505980     -0.142661028559222      1.496988992544594
He      0.363166225821953     -0.609696346673879      1.347648127140199
He      0.412746774831497      0.258287627430369      1.465807099655614
He     -0.415073430582158      0.772068567528973     -0.153991894631842
