15
xyz
C       0.000000000000000      0.000000000000000      0.000000000000000
N       0.000000000000000      0.000000000000000      1.171800000000000
X       0.000224388033208      0.000020775211939     -0.053451162059527
X      -0.517878149854712      0.200364711059466      0.612421710663654
X       0.431376568405190      0.347602491182436      0.612417927933438
X       0.084016608101360     -0.548573769845576      0.612420376673626
X       0.000210783042876      0.000332391668280     -0.833960993900672
X       0.000186181897105      0.000040797147492      1.217002034067140
X       0.000107680275365      0.000280853193498      1.928255230891127
He      0.000014225962426      0.000099586663923      0.097225383425424
He      0.000041333543086      0.000201507305016      1.229523063511802
He      0.056775917000191     -0.364762035089562      0.586366938511730
He      0.286270925886219      0.230274116621536      0.585534422962422
He     -0.343628833774756      0.131584598609197      0.585786319133898
He      0.000028830377992     -0.000186252359646      1.915937062782528
