20
xyz
F       0.000000000000000      0.000000000000000      0.000000000000000
F       0.000000000000000      0.000000000000000      1.411900000000000
X      -0.000028888749866      0.000000750719724     -0.011290541433414
X       0.003108039894266      0.000006285107577      0.705614804674571
X      -0.552045989621688     -0.001527605146145     -0.056792571628141
X       0.275214225226423      0.483196729369504     -0.052716162189328
X       0.277900217976713     -0.481660024497000     -0.052703365682766
X       0.000081881300913     -0.000001477045064      1.423091960060095
X      -0.281480126004954      0.478631702980114      1.467219488864268
X       0.554296586076365      0.003373637070525      1.464388221755951
X      -0.275604994241206     -0.482025310668753      1.467237380153860
He     -0.000642642336130     -0.000000930566867     -0.010864682862250
He     -0.552477575661896     -0.001528862752182     -0.057572106660545
He      0.275179186472825      0.482994864780616     -0.053232578605318
He      0.277863472158596     -0.481458197078171     -0.053220367077470
He      0.000086718327852     -0.000001442379061      1.423231027758145
He      0.003431187845041      0.000007420549064      0.706653507554166
He     -0.281532136635704      0.478431078654313      1.466966516871574
He      0.554070071563147      0.003375305465345      1.463618363831727
He     -0.275654990410345     -0.481827687800232      1.466982939392233
