20
xyz
F       0.000000000000000      0.000000000000000      0.000000000000000
F       0.000000000000000      0.000000000000000      1.411900000000000
X      -0.000071305799545      0.000002101792791     -0.003054726982925
X       0.000676870210012     -0.000007378534313      0.705846788323796
X      -0.545841177736581     -0.001930365189365     -0.068606732033125
X       0.272305567102911      0.476734381487904     -0.067154841584464
X       0.275692326837926     -0.474787399054002     -0.067122455478003
X       0.000049604446742     -0.000004983524592      1.414909946310766
X      -0.278108692999012      0.472745834774080      1.479602144134285
X       0.547865185454129      0.004101443276601      1.479647733899270
X      -0.270970201809006     -0.476858677200331      1.479652319099579
He     -0.000139943914445      0.000001797367263     -0.003000772239156
He     -0.545737343905465     -0.001929601412828     -0.068963407293897
He      0.271978153797549      0.476230394661995     -0.067150530665403
He      0.275357503654383     -0.474285358990054     -0.067119703257127
He      0.000060566488466     -0.000004873565824      1.414956405328961
He      0.000982037379066     -0.000005385428197      0.706086882061433
He     -0.278049143431385      0.472447936046852      1.479630467687091
He      0.547428629896277      0.004102678511883      1.479298421217465
He     -0.270908854056513     -0.476565147812583      1.479680421083363
