10
xyz
F	   0.000000000000000	   0.000000000000000	   0.000000000000000
X	  -0.000726300000000	   0.001054260000000	  -0.000852680000000
X	   0.412282460000000	  -0.145070530000000	  -0.460020950000000
X	   0.143072610000000	  -0.338114850000000	   0.520431810000000
X	   0.039514090000000	   0.617022060000000	   0.135856860000000
X	  -0.587589400000000	  -0.144340730000000	  -0.186308670000000
He	  -0.001838430000000	  -0.021106890000000	   0.032400780000000
He	   0.098461950000000	   0.473975770000000	  -0.566577640000000
He	  -0.214615550000000	   0.212059040000000	   0.660715560000000
He	   0.225318690000000	  -0.695667790000000	  -0.082092520000000
