10
xyz
F	   0.000000000000000	   0.000000000000000	   0.000000000000000
X	   0.002793640000000	  -0.002490910000000	   0.000275820000000
X	   0.393109320000000	  -0.114670710000000	  -0.440133730000000
X	   0.120273120000000	  -0.320516660000000	   0.494389630000000
X	   0.034486370000000	   0.597084200000000	   0.122864510000000
X	  -0.564548610000000	  -0.146646410000000	  -0.178477810000000
He	   0.056942420000000	   0.069601510000000	   0.000883770000000
He	   0.073031010000000	   0.481299780000000	  -0.547117140000000
He	  -0.261234300000000	   0.234765320000000	   0.651947660000000
He	   0.177020300000000	  -0.706742810000000	  -0.077265930000000
