17
xyz
C       0.000000000000000      0.000000000000000      0.000000000000000
H       0.000000000000000      0.000000000000000      1.064000000000000
N       0.000000000000000      0.000000000000000     -1.156000000000000
X       0.000047748828064     -0.000082364433138      0.023054816894433
X       0.000024825963738     -0.000186979499706      0.888775873008566
X      -0.532028689299054     -0.267948751480140     -0.607980179862600
X       0.497925252062185     -0.325609640185256     -0.607897944250281
X       0.033207500087040      0.595459065039098     -0.608061697367269
X       0.000030881840168     -0.000059385215322     -1.173565792404816
X       0.000081765272943     -0.000346037638188     -1.837741998510606
He      0.000047500709242     -0.000081494736947      0.023206235050545
He      0.000025860757859     -0.000197879680013      0.887048543229580
He      0.000031014785560     -0.000060648264005     -1.174051932500553
He      0.033134172961989      0.594160079441645     -0.608978356335180
He      0.496852695479290     -0.324901702454853     -0.608801055694114
He     -0.530883589748688     -0.267375165554996     -0.608886477392421
He      0.000076852915120     -0.000332622893823     -1.830381360066877
