17
xyz
C       0.000000000000000      0.000000000000000      0.000000000000000
H       0.000000000000000      0.000000000000000      1.064000000000000
N       0.000000000000000      0.000000000000000     -1.156000000000000
X       0.000039482105847     -0.000119262812741      0.026424134658245
X       0.000019589032504     -0.000151383104529      0.899945794637577
X      -0.512734359353781     -0.258358725908424     -0.609638693000817
X       0.480249041423821     -0.313747260270713     -0.609591352561317
X       0.031973870095835      0.574148411479790     -0.609731068377522
X       0.000022942191883     -0.000073334446591     -1.178745655362379
X       0.000061030304912     -0.000325975765377     -1.864951300526089
He      0.000039289436659     -0.000118372145570      0.026617123910351
He      0.000020506992420     -0.000163840031150      0.898137196263168
He      0.000023449610316     -0.000075411401619     -1.179272375795789
He      0.031889478024316      0.572568967202190     -0.610664639013061
He      0.478937512600953     -0.312887898642864     -0.610507680186733
He     -0.511343249685145     -0.257653176033219     -0.610558393166013
He      0.000056869551197     -0.000312320840823     -1.858105593664353
