12
xyz
F       0.000000000000000      0.000000000000000      0.000000000000000
H       0.000000000000000      0.000000000000000      0.916800000000000
X       0.000009178224425     -0.000018352374071      0.016588145966552
X       0.000030816249175     -0.000168560781778      0.841253794803184
X       0.557672147362199      0.076675441802036     -0.255403282200739
X      -0.212411106289163     -0.521298434968780     -0.255504254757938
X      -0.345288055188298      0.444591603670264     -0.255342093452632
He      0.000007383403556     -0.000017283496649      0.016471031944290
He      0.558166151958084      0.076745498714518     -0.254533097292150
He     -0.212588961080968     -0.521765397495430     -0.254634284574190
He     -0.345600365982043      0.444986917121459     -0.254460538424732
He      0.000019954997397     -0.000165640390349      0.839413917877989
