12
xyz
F       0.000000000000000      0.000000000000000      0.000000000000000
H       0.000000000000000      0.000000000000000      0.916800000000000
X       0.000006050183914     -0.000073630054533      0.015245695926686
X      -0.000244812740994     -0.000408527236539      0.844543426364996
X       0.558422063545073      0.077441448335334     -0.250096717245053
X      -0.212092017266953     -0.522227707682346     -0.250723444088540
X      -0.346339741208017      0.444794940163350     -0.250266639512835
He      0.000004449319085     -0.000060275451189      0.015227643157372
He      0.558143334853347      0.077405934558597     -0.250453328122085
He     -0.211983509004102     -0.521965517972952     -0.251088981500092
He     -0.346168783196654      0.444573721493153     -0.250614418636336
He     -0.000248254049076     -0.000397678606541      0.845307542100457
