12
xyz
F       0.000000000000000      0.000000000000000      0.000000000000000
H       0.000000000000000      0.000000000000000      0.916800000000000
X       0.000010390833883     -0.000037260680903      0.026991963906090
X      -0.000206900374285     -0.000496299251431      0.842116130601460
X       0.549348740366725      0.076256521566073     -0.253822287900268
X      -0.208489498113267     -0.513734252598962     -0.254531940181796
X      -0.340785833057088      0.437509205300404     -0.253908951517507
He      0.000010610888697     -0.000037417011689      0.027208892606408
He      0.549018327813568      0.076201559422668     -0.254775877084067
He     -0.208378186724272     -0.513418106564417     -0.255481381348875
He     -0.340571088842628      0.437247665319930     -0.254868448783029
He     -0.000196747176514     -0.000494553452745      0.844845856430249
