26
xyz
N      -1.163600020000000     -0.060500000000000      0.000000000000000
N       0.073000000000000     -0.018400000000000      0.000000000000000
N       1.205200020000000      0.020300000000000      0.000000000000000
H      -1.592200030000000      0.815100020000000      0.000000000000000
X      -1.184692520875744     -0.050969252632689     -0.000424895902180
X      -0.539867621281286      0.032399628679411     -0.009182417978634
X      -1.362949396041815      0.632895313722476      0.003529884396002
X      -1.131477606270567     -0.505786347042859      0.643686580777171
X      -1.147960691949357     -0.536275936789446     -0.622658081509123
X       0.033000746848921     -0.017230044803183      0.001593059622516
X       0.640070281276475     -0.433320919816280      0.100772712765387
X       0.652152916908639      0.338179018396751      0.313411660478927
X       0.718581669293459      0.054508693255568     -0.463225435391411
X       1.228964337989811      0.025628073972735      0.001122834008252
X       1.938964317587625      0.059862619866988      0.013119416936634
He     -1.184679762392875     -0.051181331423875     -0.000419567064630
He     -1.131461861980713     -0.502604439237474      0.644156928449589
He     -1.148597285543415     -0.532334154604666     -0.623340663776672
He      0.036537188756283     -0.017518072674618      0.001504691251490
He     -0.538409875731964      0.031416086714621     -0.008964329467940
He      1.229079430789344      0.025642539048533      0.001090884589595
He      0.718665942517731      0.054747570011807     -0.462614444556697
He      0.652774820970268      0.337277920697485      0.314114780377289
He      0.640232213476556     -0.432905457273499      0.099873619782933
He      1.936160552737060      0.060037348447934      0.012988796649329
He     -1.365839079514377      0.630625807277924      0.003387971315523
