26
xyz
N      -1.163600020000000     -0.060500000000000      0.000000000000000
N       0.073000000000000     -0.018400000000000      0.000000000000000
N       1.205200020000000      0.020300000000000      0.000000000000000
H      -1.592200030000000      0.815100020000000      0.000000000000000
X      -1.218451599068706     -0.054171838787544      0.000506349072709
X      -0.527019751282980      0.032361409115015     -0.010439063421516
X      -1.425837332903922      0.580156232454132      0.004573956670209
X      -1.111780768573945     -0.516059204817446      0.612998546814500
X      -1.117091479271447     -0.530576573825760     -0.600929091957267
X       0.015803453735593     -0.016758246711516      0.001635830155610
X       0.680061732051542     -0.374230358020162      0.136126520450125
X       0.658709989740761      0.338687812229957      0.251399467132049
X       0.749896701579654     -0.011275249326376     -0.456017363701013
X       1.256005852872271      0.031444743772509      0.001800402194675
X       1.933450064942574      0.054403203578852      0.006470917640306
He     -1.218483789157930     -0.053935729444407      0.000505367246897
He     -1.109076534654585     -0.518282436968884      0.613351719627990
He     -1.114311931218205     -0.533207490981252     -0.601063443639393
He      0.015967411279204     -0.016732233668095      0.001874953677919
He     -0.528564383881230      0.031970491393920     -0.010566258798863
He      1.254548451532246      0.031263544771065      0.001736177131403
He      0.749046047507321     -0.012279110051346     -0.454597874666842
He      0.658337732366444      0.338683173229857      0.250558193994903
He      0.679135022440211     -0.373136148760559      0.134651944714330
He      1.951316745539115      0.056265168041917      0.007313040581204
He     -1.423014416575666      0.581348090853977      0.004846137225371
